<?xml version="1.0" encoding="UTF-8"?>
<!DOCTYPE network SYSTEM "http://www.matsim.org/files/dtd/network_v2.dtd">
<network>

<!-- ====================================================================== -->

	<nodes>
		<node id="102855127" x="-87.87905" y="41.9814998" >
		</node>
		<node id="102856044" x="-87.8782176" y="41.9813934" >
		</node>
		<node id="102857955" x="-87.8758658" y="41.9821036" >
		</node>
		<node id="1104223242" x="-87.86085270000001" y="41.7523058" >
		</node>
		<node id="1104223389" x="-87.8587227" y="41.7507709" >
		</node>
		<node id="1104223463" x="-87.8606063" y="41.75242" >
		</node>
		<node id="1104223469" x="-87.85595690000001" y="41.7480946" >
		</node>
		<node id="1104223639" x="-87.8672775" y="41.7588924" >
		</node>
		<node id="1104223746" x="-87.8589233" y="41.7506434" >
		</node>
		<node id="1104223780" x="-87.8670768" y="41.7589246" >
		</node>
		<node id="1105813488" x="-87.64601370000001" y="41.8837666" >
		</node>
		<node id="110970240" x="-87.87091550000001" y="41.9811246" >
		</node>
		<node id="110980691" x="-87.8541556" y="41.9848419" >
		</node>
		<node id="110980697" x="-87.8615939" y="41.983853" >
		</node>
		<node id="110980959" x="-87.87046690000001" y="41.9842779" >
		</node>
		<node id="110981418" x="-87.8719727" y="41.9834254" >
		</node>
		<node id="110981420" x="-87.87212930000001" y="41.982883" >
		</node>
		<node id="110982766" x="-87.8641193" y="41.9867214" >
		</node>
		<node id="110985314" x="-87.8633956" y="41.9848331" >
		</node>
		<node id="110986653" x="-87.86211440000001" y="41.9833432" >
		</node>
		<node id="110987144" x="-87.85683780000001" y="41.9834387" >
		</node>
		<node id="1171262152" x="-87.90843600000001" y="41.766139900000006" >
		</node>
		<node id="1186300291" x="-87.96542600000001" y="41.9091175" >
		</node>
		<node id="1186300312" x="-87.9655553" y="41.9097525" >
		</node>
		<node id="1207511270" x="-87.8564102" y="41.984734100000004" >
		</node>
		<node id="1207511276" x="-87.85715470000001" y="41.9849504" >
		</node>
		<node id="125003447" x="-87.8572724" y="41.984117600000005" >
		</node>
		<node id="125009549" x="-87.86901490000001" y="41.9843655" >
		</node>
		<node id="125009552" x="-87.8701906" y="41.9843118" >
		</node>
		<node id="127062511" x="-87.86692570000001" y="41.9842255" >
		</node>
		<node id="127062513" x="-87.8676216" y="41.9842742" >
		</node>
		<node id="1272698314" x="-87.69817280000001" y="41.933659500000005" >
		</node>
		<node id="1319642690" x="-87.87905400000001" y="41.9812637" >
		</node>
		<node id="1385442857" x="-87.6255953" y="41.7686647" >
		</node>
		<node id="1385442860" x="-87.63115470000001" y="41.800434700000004" >
		</node>
		<node id="1385442867" x="-87.63222610000001" y="41.8079836" >
		</node>
		<node id="1385442872" x="-87.948318" y="41.844982300000005" >
		</node>
		<node id="1385442882" x="-87.94424500000001" y="41.8464438" >
		</node>
		<node id="1385442884" x="-87.9430234" y="41.847247700000004" >
		</node>
		<node id="1385442886" x="-87.9381214" y="41.8503343" >
		</node>
		<node id="1385442890" x="-87.9351566" y="41.852507200000005" >
		</node>
		<node id="1385442895" x="-87.93214640000001" y="41.8544648" >
		</node>
		<node id="1385442902" x="-87.92951950000001" y="41.857158600000005" >
		</node>
		<node id="1385442904" x="-87.7339798" y="41.9553378" >
		</node>
		<node id="1385442905" x="-87.73543810000001" y="41.9566766" >
		</node>
		<node id="1385442910" x="-87.85571060000001" y="41.9845623" >
		</node>
		<node id="1385445031" x="-87.857293" y="41.9849934" >
		</node>
		<node id="1411567038" x="-87.86857040000001" y="41.980732700000004" >
		</node>
		<node id="1411567054" x="-87.8671762" y="41.984002100000005" >
		</node>
		<node id="1411567062" x="-87.8673447" y="41.9833103" >
		</node>
		<node id="1411567070" x="-87.867343" y="41.983984500000005" >
		</node>
		<node id="1607719866" x="-87.771974" y="41.975509900000006" >
		</node>
		<node id="1640074126" x="-87.6540228" y="41.8758649" >
		</node>
		<node id="1647427045" x="-87.64931510000001" y="41.875735500000005" >
		</node>
		<node id="1647451060" x="-87.6454738" y="41.877797300000005" >
		</node>
		<node id="1647463710" x="-87.6458643" y="41.8745838" >
		</node>
		<node id="1647463711" x="-87.6470104" y="41.874987700000005" >
		</node>
		<node id="1647467800" x="-87.6446501" y="41.8748718" >
		</node>
		<node id="1647610340" x="-87.64456170000001" y="41.872874100000004" >
		</node>
		<node id="1647616671" x="-87.6445795" y="41.873504000000004" >
		</node>
		<node id="1655374985" x="-87.6455296" y="41.872620600000005" >
		</node>
		<node id="1655426895" x="-87.64485160000001" y="41.873138000000004" >
		</node>
		<node id="1655431900" x="-87.6444814" y="41.8695389" >
		</node>
		<node id="1655447330" x="-87.64443990000001" y="41.8652178" >
		</node>
		<node id="1655447882" x="-87.6446463" y="41.8652163" >
		</node>
		<node id="1655451909" x="-87.64457680000001" y="41.863576900000005" >
		</node>
		<node id="1705380647" x="-87.6434715" y="41.847663700000005" >
		</node>
		<node id="180232337" x="-87.51652390000001" y="41.656518500000004" >
		</node>
		<node id="180281360" x="-87.5086332" y="41.655363300000005" >
		</node>
		<node id="1867531374" x="-87.9578683" y="41.845035700000004" >
		</node>
		<node id="1884270702" x="-87.51566600000001" y="41.6579434" >
		</node>
		<node id="1884270722" x="-87.51518100000001" y="41.657604400000004" >
		</node>
		<node id="1884576908" x="-87.4776427" y="41.653958100000004" >
		</node>
		<node id="1884576917" x="-87.4561204" y="41.6491343" >
		</node>
		<node id="1884576947" x="-87.508323" y="41.6569172" >
		</node>
		<node id="1884577033" x="-87.4815471" y="41.6552597" >
		</node>
		<node id="1884577072" x="-87.48974750000001" y="41.6573389" >
		</node>
		<node id="1884577087" x="-87.45636830000001" y="41.6489538" >
		</node>
		<node id="1884577162" x="-87.4763552" y="41.6537437" >
		</node>
		<node id="1884577198" x="-87.48090690000001" y="41.6551265" >
		</node>
		<node id="1884577270" x="-87.4897502" y="41.6574852" >
		</node>
		<node id="1884577299" x="-87.4767442" y="41.6537938" >
		</node>
		<node id="1884577305" x="-87.4887966" y="41.6573499" >
		</node>
		<node id="1884577345" x="-87.50818770000001" y="41.6553847" >
		</node>
		<node id="1884577347" x="-87.4887966" y="41.6574942" >
		</node>
		<node id="1884577434" x="-87.50818020000001" y="41.655332200000004" >
		</node>
		<node id="1884577656" x="-87.50281790000001" y="41.657126500000004" >
		</node>
		<node id="1884577693" x="-87.48081040000001" y="41.654908000000006" >
		</node>
		<node id="1889135734" x="-87.6249837" y="41.751779500000005" >
		</node>
		<node id="1889135796" x="-87.6296808" y="41.812842700000004" >
		</node>
		<node id="1892892264" x="-87.95555440000001" y="41.8443771" >
		</node>
		<node id="1892892277" x="-87.94967720000001" y="41.844630900000006" >
		</node>
		<node id="1892892291" x="-87.9528451" y="41.8447898" >
		</node>
		<node id="1892892295" x="-87.9585562" y="41.8448245" >
		</node>
		<node id="1892892362" x="-87.9435641" y="41.846873800000004" >
		</node>
		<node id="1892892365" x="-87.9347874" y="41.852774600000004" >
		</node>
		<node id="1937532125" x="-87.87072830000001" y="41.8709846" >
		</node>
		<node id="1937532131" x="-87.6626557" y="41.8755547" >
		</node>
		<node id="1937532132" x="-87.6615878" y="41.876126" >
		</node>
		<node id="1937532163" x="-87.94003690000001" y="41.9171932" >
		</node>
		<node id="1937532165" x="-87.9400786" y="41.9172735" >
		</node>
		<node id="2011455680" x="-87.9141278" y="41.936784800000005" >
		</node>
		<node id="2011455714" x="-87.9141414" y="41.9370208" >
		</node>
		<node id="2023880707" x="-87.6258265" y="41.773916400000005" >
		</node>
		<node id="2372805481" x="-87.89640920000001" y="41.8722007" >
		</node>
		<node id="2372805482" x="-87.8966228" y="41.872307" >
		</node>
		<node id="237602024" x="-87.9205699" y="41.879899800000004" >
		</node>
		<node id="237602159" x="-87.939259" y="41.914099" >
		</node>
		<node id="237602179" x="-87.94180080000001" y="41.9158145" >
		</node>
		<node id="237603857" x="-87.920759" y="41.904908000000006" >
		</node>
		<node id="237604220" x="-87.96770280000001" y="41.927632" >
		</node>
		<node id="237605079" x="-87.940106" y="41.914443000000006" >
		</node>
		<node id="237605219" x="-87.96871780000001" y="41.925090700000005" >
		</node>
		<node id="237612650" x="-87.932069" y="41.8535094" >
		</node>
		<node id="237612747" x="-87.93971300000001" y="41.9172534" >
		</node>
		<node id="237612996" x="-87.93502000000001" y="41.852380700000005" >
		</node>
		<node id="237612999" x="-87.93426570000001" y="41.852863" >
		</node>
		<node id="237613006" x="-87.9334137" y="41.853207100000006" >
		</node>
		<node id="237613867" x="-87.92947910000001" y="41.9092173" >
		</node>
		<node id="237613973" x="-87.94808760000001" y="41.8468401" >
		</node>
		<node id="237613976" x="-87.94813860000001" y="41.8462283" >
		</node>
		<node id="237614846" x="-87.9291005" y="41.8529448" >
		</node>
		<node id="237782669" x="-87.9676867" y="41.9278715" >
		</node>
		<node id="237782686" x="-87.9596911" y="41.9269795" >
		</node>
		<node id="237782703" x="-87.9532082" y="41.9252972" >
		</node>
		<node id="237782737" x="-87.9456961" y="41.9182939" >
		</node>
		<node id="237782757" x="-87.939391" y="41.9143538" >
		</node>
		<node id="237787888" x="-87.9665334" y="41.9179836" >
		</node>
		<node id="237828956" x="-87.9657456" y="41.9093886" >
		</node>
		<node id="250279042" x="-87.62491250000001" y="41.7180345" >
		</node>
		<node id="250279043" x="-87.6248243" y="41.7174355" >
		</node>
		<node id="250279045" x="-87.6241809" y="41.7159649" >
		</node>
		<node id="250279048" x="-87.6210647" y="41.713652800000006" >
		</node>
		<node id="250279053" x="-87.6128382" y="41.7131865" >
		</node>
		<node id="250353154" x="-87.6239453" y="41.717862000000004" >
		</node>
		<node id="250353190" x="-87.6020493" y="41.7136146" >
		</node>
		<node id="250755950" x="-87.6738309" y="41.9197058" >
		</node>
		<node id="250774991" x="-87.62413070000001" y="41.7204271" >
		</node>
		<node id="253431461" x="-87.88463490000001" y="41.946742400000005" >
		</node>
		<node id="253432344" x="-87.9198575" y="41.880666700000006" >
		</node>
		<node id="253432346" x="-87.9196888" y="41.882309400000004" >
		</node>
		<node id="253432357" x="-87.9203811" y="41.8823729" >
		</node>
		<node id="253432359" x="-87.92039360000001" y="41.8899915" >
		</node>
		<node id="253432365" x="-87.92035530000001" y="41.9015727" >
		</node>
		<node id="253710940" x="-87.9182696" y="41.8738414" >
		</node>
		<node id="253710971" x="-87.91397" y="41.8751211" >
		</node>
		<node id="253710979" x="-87.91895120000001" y="41.8810233" >
		</node>
		<node id="253710980" x="-87.91909360000001" y="41.882257900000006" >
		</node>
		<node id="253710981" x="-87.9191279" y="41.883382600000004" >
		</node>
		<node id="256170758" x="-87.7550398" y="41.967942400000005" >
		</node>
		<node id="256170759" x="-87.7567095" y="41.967916" >
		</node>
		<node id="256180938" x="-87.6442057" y="41.8564024" >
		</node>
		<node id="256180949" x="-87.6367845" y="41.845977600000005" >
		</node>
		<node id="25622848" x="-87.9577749" y="41.8441531" >
		</node>
		<node id="256626807" x="-87.6507413" y="41.875324400000004" >
		</node>
		<node id="256626808" x="-87.6487125" y="41.875359700000004" >
		</node>
		<node id="25779161" x="-87.6609207" y="41.9009018" >
		</node>
		<node id="25779172" x="-87.65742250000001" y="41.8952516" >
		</node>
		<node id="25779173" x="-87.65711370000001" y="41.895017800000005" >
		</node>
		<node id="25779174" x="-87.65597620000001" y="41.8943014" >
		</node>
		<node id="25779183" x="-87.64864010000001" y="41.889394100000004" >
		</node>
		<node id="25779189" x="-87.6460351" y="41.8842617" >
		</node>
		<node id="25779203" x="-87.6443969" y="41.857895500000005" >
		</node>
		<node id="25779217" x="-87.6620843" y="41.840616000000004" >
		</node>
		<node id="25779221" x="-87.6683828" y="41.837544300000005" >
		</node>
		<node id="25779235" x="-87.7430619" y="41.8175286" >
		</node>
		<node id="25779236" x="-87.74376430000001" y="41.8173095" >
		</node>
		<node id="25779238" x="-87.74955770000001" y="41.8152191" >
		</node>
		<node id="25779253" x="-87.8132994" y="41.796677" >
		</node>
		<node id="25779254" x="-87.8140812" y="41.7966934" >
		</node>
		<node id="258016815" x="-87.6385008" y="41.8471868" >
		</node>
		<node id="258016930" x="-87.6202062" y="41.847926300000005" >
		</node>
		<node id="258016969" x="-87.6224114" y="41.8478913" >
		</node>
		<node id="258017050" x="-87.6268182" y="41.8473199" >
		</node>
		<node id="258017053" x="-87.6385022" y="41.8473156" >
		</node>
		<node id="258017072" x="-87.6311436" y="41.852934600000005" >
		</node>
		<node id="258017656" x="-87.63115280000001" y="41.850453" >
		</node>
		<node id="258017660" x="-87.6311007" y="41.8483624" >
		</node>
		<node id="258017663" x="-87.63133830000001" y="41.8470748" >
		</node>
		<node id="258019036" x="-87.62013420000001" y="41.848153" >
		</node>
		<node id="258019075" x="-87.6167654" y="41.847993300000006" >
		</node>
		<node id="258019561" x="-87.63053790000001" y="41.8431835" >
		</node>
		<node id="258019603" x="-87.6313313" y="41.838902100000006" >
		</node>
		<node id="258019610" x="-87.63150870000001" y="41.8423578" >
		</node>
		<node id="258019649" x="-87.61426630000001" y="41.8539539" >
		</node>
		<node id="258019650" x="-87.6144208" y="41.8541649" >
		</node>
		<node id="258019652" x="-87.6150444" y="41.8550818" >
		</node>
		<node id="258019714" x="-87.64556730000001" y="41.8755964" >
		</node>
		<node id="258019734" x="-87.6452608" y="41.8755839" >
		</node>
		<node id="258019903" x="-87.68114890000001" y="41.875337300000005" >
		</node>
		<node id="258019905" x="-87.67281960000001" y="41.875432700000005" >
		</node>
		<node id="258019910" x="-87.6623278" y="41.875560400000005" >
		</node>
		<node id="258023699" x="-87.6480032" y="41.8891001" >
		</node>
		<node id="258023701" x="-87.6465964" y="41.887381700000006" >
		</node>
		<node id="258023714" x="-87.6468442" y="41.8873832" >
		</node>
		<node id="258023715" x="-87.6483005" y="41.8890961" >
		</node>
		<node id="258023724" x="-87.64935410000001" y="41.889945700000006" >
		</node>
		<node id="258023775" x="-87.646135" y="41.8855158" >
		</node>
		<node id="258289673" x="-87.61899550000001" y="41.864982000000005" >
		</node>
		<node id="258290864" x="-87.61713990000001" y="41.8578495" >
		</node>
		<node id="258290866" x="-87.616068" y="41.858122200000004" >
		</node>
		<node id="258952595" x="-87.850329" y="41.983774700000005" >
		</node>
		<node id="258955118" x="-87.86930890000001" y="41.9728098" >
		</node>
		<node id="258955224" x="-87.8693776" y="41.9780651" >
		</node>
		<node id="258957058" x="-87.8597493" y="41.871087" >
		</node>
		<node id="258957080" x="-87.8260446" y="41.871968700000004" >
		</node>
		<node id="258957081" x="-87.825006" y="41.8720007" >
		</node>
		<node id="258957083" x="-87.82036160000001" y="41.872116000000005" >
		</node>
		<node id="258957098" x="-87.8092122" y="41.8739374" >
		</node>
		<node id="258957106" x="-87.77912" y="41.8712212" >
		</node>
		<node id="258957109" x="-87.7692418" y="41.8706521" >
		</node>
		<node id="258957114" x="-87.76500510000001" y="41.8709718" >
		</node>
		<node id="258957115" x="-87.76392340000001" y="41.8710997" >
		</node>
		<node id="26098008" x="-87.6226635" y="41.8478853" >
		</node>
		<node id="26098016" x="-87.6275907" y="41.8469622" >
		</node>
		<node id="26098027" x="-87.63633200000001" y="41.8472219" >
		</node>
		<node id="26098032" x="-87.64631920000001" y="41.8458125" >
		</node>
		<node id="26098041" x="-87.6619146" y="41.840397" >
		</node>
		<node id="26098045" x="-87.66463730000001" y="41.838850900000004" >
		</node>
		<node id="26098065" x="-87.74305460000001" y="41.817250200000004" >
		</node>
		<node id="26098066" x="-87.7438511" y="41.816990600000004" >
		</node>
		<node id="26098075" x="-87.79387320000001" y="41.8009262" >
		</node>
		<node id="26098091" x="-87.8104826" y="41.7963011" >
		</node>
		<node id="26098095" x="-87.6172234" y="41.859460000000006" >
		</node>
		<node id="26098097" x="-87.61761920000001" y="41.8603344" >
		</node>
		<node id="261092785" x="-87.7005223" y="41.8308705" >
		</node>
		<node id="261092787" x="-87.6979371" y="41.8316931" >
		</node>
		<node id="261093229" x="-87.62556260000001" y="41.7483516" >
		</node>
		<node id="261093785" x="-87.6923718" y="41.8758545" >
		</node>
		<node id="261095213" x="-87.91399530000001" y="41.8749598" >
		</node>
		<node id="261096165" x="-87.90544820000001" y="41.763549700000006" >
		</node>
		<node id="261096587" x="-87.9066574" y="41.7699743" >
		</node>
		<node id="261096589" x="-87.9064426" y="41.7718299" >
		</node>
		<node id="261101265" x="-87.89762680000001" y="41.760797000000004" >
		</node>
		<node id="261102554" x="-87.761167" y="41.811711200000005" >
		</node>
		<node id="261104128" x="-87.85395530000001" y="41.7462803" >
		</node>
		<node id="261104494" x="-87.76281250000001" y="41.810721" >
		</node>
		<node id="261105572" x="-87.7125259" y="41.9404782" >
		</node>
		<node id="261106528" x="-87.85351750000001" y="41.746286700000006" >
		</node>
		<node id="261107645" x="-87.6924137" y="41.875091100000006" >
		</node>
		<node id="261107649" x="-87.6901528" y="41.875116600000005" >
		</node>
		<node id="261107945" x="-87.70165460000001" y="41.829828500000005" >
		</node>
		<node id="261109110" x="-87.9189048" y="41.8787687" >
		</node>
		<node id="261110959" x="-87.69933180000001" y="41.830573900000005" >
		</node>
		<node id="261113466" x="-87.8637837" y="41.762525600000004" >
		</node>
		<node id="261172192" x="-87.5851097" y="41.722349900000005" >
		</node>
		<node id="261235985" x="-87.85577740000001" y="41.748245700000005" >
		</node>
		<node id="261249494" x="-87.9192824" y="41.8822643" >
		</node>
		<node id="261278471" x="-87.8523971" y="41.7324738" >
		</node>
		<node id="261338946" x="-87.9205871" y="41.882379300000004" >
		</node>
		<node id="261338967" x="-87.9205489" y="41.899509300000005" >
		</node>
		<node id="261339377" x="-87.91837260000001" y="41.875605300000004" >
		</node>
		<node id="261339381" x="-87.91927390000001" y="41.8834145" >
		</node>
		<node id="261339386" x="-87.9191157" y="41.896749500000006" >
		</node>
		<node id="261339387" x="-87.91939" y="41.8977341" >
		</node>
		<node id="261339389" x="-87.91966950000001" y="41.8998283" >
		</node>
		<node id="26218622" x="-87.68034010000001" y="41.8758318" >
		</node>
		<node id="26218631" x="-87.7065951" y="41.8745331" >
		</node>
		<node id="26218654" x="-87.76397750000001" y="41.871356000000006" >
		</node>
		<node id="26218655" x="-87.76505730000001" y="41.8712278" >
		</node>
		<node id="26218674" x="-87.8123925" y="41.8740886" >
		</node>
		<node id="26218680" x="-87.8189608" y="41.8724739" >
		</node>
		<node id="26218684" x="-87.82600550000001" y="41.872121" >
		</node>
		<node id="26218700" x="-87.85948970000001" y="41.8712595" >
		</node>
		<node id="26218702" x="-87.8758864" y="41.870831100000004" >
		</node>
		<node id="26218712" x="-87.8905635" y="41.8700769" >
		</node>
		<node id="26218720" x="-87.9021077" y="41.873796600000006" >
		</node>
		<node id="26218731" x="-87.8085496" y="41.8741521" >
		</node>
		<node id="26220989" x="-87.82946030000001" y="41.7965632" >
		</node>
		<node id="26221003" x="-87.8217537" y="41.792212400000004" >
		</node>
		<node id="26221004" x="-87.8229237" y="41.792277500000004" >
		</node>
		<node id="263351194" x="-87.66967980000001" y="41.9178982" >
		</node>
		<node id="263370971" x="-87.71775860000001" y="41.94651" >
		</node>
		<node id="263408602" x="-87.66444580000001" y="41.9106733" >
		</node>
		<node id="26352096" x="-87.90137290000001" y="41.7605562" >
		</node>
		<node id="26352103" x="-87.8785414" y="41.7607255" >
		</node>
		<node id="26352106" x="-87.86773190000001" y="41.7616357" >
		</node>
		<node id="26352107" x="-87.86261640000001" y="41.7623144" >
		</node>
		<node id="26352109" x="-87.853381" y="41.763601200000004" >
		</node>
		<node id="26352114" x="-87.8497676" y="41.7649904" >
		</node>
		<node id="26352124" x="-87.8286618" y="41.7854031" >
		</node>
		<node id="26352131" x="-87.81334670000001" y="41.7964524" >
		</node>
		<node id="26359145" x="-87.83213710000001" y="41.798296900000004" >
		</node>
		<node id="26359146" x="-87.83277550000001" y="41.7990937" >
		</node>
		<node id="26359147" x="-87.83305580000001" y="41.7991077" >
		</node>
		<node id="26359159" x="-87.82928460000001" y="41.7967122" >
		</node>
		<node id="26359160" x="-87.82830290000001" y="41.7963423" >
		</node>
		<node id="26359165" x="-87.8231933" y="41.7944656" >
		</node>
		<node id="26359173" x="-87.82144310000001" y="41.793810900000004" >
		</node>
		<node id="26359175" x="-87.8205204" y="41.7934829" >
		</node>
		<node id="26359496" x="-87.82433590000001" y="41.7932489" >
		</node>
		<node id="26359507" x="-87.82088010000001" y="41.795627800000005" >
		</node>
		<node id="263737076" x="-87.8675104" y="41.983307100000005" >
		</node>
		<node id="263795475" x="-87.8839717" y="41.948171200000004" >
		</node>
		<node id="263820915" x="-87.8362353" y="41.9845081" >
		</node>
		<node id="263820916" x="-87.8369816" y="41.9844724" >
		</node>
		<node id="263827155" x="-87.84195840000001" y="41.984240500000006" >
		</node>
		<node id="263832284" x="-87.831041" y="41.9844585" >
		</node>
		<node id="265649600" x="-87.6455153" y="41.880833800000005" >
		</node>
		<node id="265701109" x="-87.5813596" y="41.746692100000004" >
		</node>
		<node id="266484399" x="-87.58336990000001" y="41.7479601" >
		</node>
		<node id="266484401" x="-87.5816647" y="41.7467312" >
		</node>
		<node id="266651094" x="-87.7583779" y="41.969506900000006" >
		</node>
		<node id="266651191" x="-87.75460070000001" y="41.9676117" >
		</node>
		<node id="266651192" x="-87.7542607" y="41.9673989" >
		</node>
		<node id="266651196" x="-87.7524793" y="41.9660838" >
		</node>
		<node id="266657097" x="-87.7620263" y="41.9709112" >
		</node>
		<node id="266716439" x="-87.7686633" y="41.973932000000005" >
		</node>
		<node id="266716445" x="-87.7711733" y="41.9756719" >
		</node>
		<node id="266716474" x="-87.7744388" y="41.977203200000005" >
		</node>
		<node id="266716491" x="-87.76836250000001" y="41.9734604" >
		</node>
		<node id="266800212" x="-87.8112107" y="41.982436" >
		</node>
		<node id="266803055" x="-87.8063192" y="41.982236300000004" >
		</node>
		<node id="266809507" x="-87.8018167" y="41.9822683" >
		</node>
		<node id="266809805" x="-87.80134100000001" y="41.9825109" >
		</node>
		<node id="266810591" x="-87.7966389" y="41.982303200000004" >
		</node>
		<node id="266814229" x="-87.78387040000001" y="41.982055300000006" >
		</node>
		<node id="266814712" x="-87.7825121" y="41.9814717" >
		</node>
		<node id="26698324" x="-87.8703912" y="41.9831802" >
		</node>
		<node id="26698326" x="-87.8694687" y="41.9831919" >
		</node>
		<node id="26698328" x="-87.8677644" y="41.983238400000005" >
		</node>
		<node id="26698330" x="-87.8671623" y="41.983249" >
		</node>
		<node id="26698340" x="-87.86170750000001" y="41.983350800000004" >
		</node>
		<node id="26698342" x="-87.861142" y="41.9833605" >
		</node>
		<node id="26698353" x="-87.84533760000001" y="41.9838242" >
		</node>
		<node id="26698357" x="-87.79315390000001" y="41.9823322" >
		</node>
		<node id="26699785" x="-87.7701986" y="41.9745034" >
		</node>
		<node id="26699792" x="-87.7632155" y="41.9712301" >
		</node>
		<node id="26699799" x="-87.75351230000001" y="41.966427200000005" >
		</node>
		<node id="26699807" x="-87.7457421" y="41.962413700000006" >
		</node>
		<node id="26703423" x="-87.7421814" y="41.959961" >
		</node>
		<node id="26703426" x="-87.7373082" y="41.9571364" >
		</node>
		<node id="26703429" x="-87.73279670000001" y="41.954693000000006" >
		</node>
		<node id="26703430" x="-87.7313531" y="41.9538816" >
		</node>
		<node id="26703431" x="-87.73044130000001" y="41.9533605" >
		</node>
		<node id="26703432" x="-87.72785110000001" y="41.951908" >
		</node>
		<node id="26703433" x="-87.7266166" y="41.951191800000004" >
		</node>
		<node id="26703434" x="-87.72386630000001" y="41.9496325" >
		</node>
		<node id="26703435" x="-87.7221469" y="41.9486675" >
		</node>
		<node id="26703510" x="-87.716836" y="41.9432283" >
		</node>
		<node id="26703625" x="-87.71562920000001" y="41.942134700000004" >
		</node>
		<node id="26703629" x="-87.7129414" y="41.9411335" >
		</node>
		<node id="26703630" x="-87.7121894" y="41.9409453" >
		</node>
		<node id="26703636" x="-87.7092513" y="41.9397862" >
		</node>
		<node id="26703637" x="-87.7073874" y="41.938733600000006" >
		</node>
		<node id="26703638" x="-87.70333810000001" y="41.936350100000006" >
		</node>
		<node id="26703639" x="-87.7023482" y="41.9357769" >
		</node>
		<node id="26703640" x="-87.69972390000001" y="41.934229900000005" >
		</node>
		<node id="26703641" x="-87.6979397" y="41.9331794" >
		</node>
		<node id="26703642" x="-87.69734960000001" y="41.932824800000006" >
		</node>
		<node id="26703644" x="-87.69651920000001" y="41.9323387" >
		</node>
		<node id="26703645" x="-87.6957766" y="41.931896800000004" >
		</node>
		<node id="26703646" x="-87.6940861" y="41.9308994" >
		</node>
		<node id="26703648" x="-87.6915853" y="41.9296451" >
		</node>
		<node id="26703649" x="-87.6899173" y="41.9288469" >
		</node>
		<node id="26703650" x="-87.6872907" y="41.9273577" >
		</node>
		<node id="26703657" x="-87.6835435" y="41.9252295" >
		</node>
		<node id="26703658" x="-87.68266220000001" y="41.924745200000004" >
		</node>
		<node id="26703660" x="-87.6780701" y="41.9221239" >
		</node>
		<node id="26703891" x="-87.6612295" y="41.905802200000004" >
		</node>
		<node id="26703897" x="-87.676495" y="41.9212215" >
		</node>
		<node id="26703901" x="-87.67111530000001" y="41.9181387" >
		</node>
		<node id="26703902" x="-87.67041300000001" y="41.917647200000005" >
		</node>
		<node id="26703906" x="-87.6689181" y="41.9163261" >
		</node>
		<node id="26703912" x="-87.6653721" y="41.910928600000005" >
		</node>
		<node id="26703913" x="-87.66505160000001" y="41.910423300000005" >
		</node>
		<node id="26703916" x="-87.663224" y="41.908385" >
		</node>
		<node id="26703923" x="-87.66132710000001" y="41.9061237" >
		</node>
		<node id="26704033" x="-87.6612563" y="41.9037877" >
		</node>
		<node id="26704134" x="-87.66087040000001" y="41.9058724" >
		</node>
		<node id="26704136" x="-87.661061" y="41.906443100000004" >
		</node>
		<node id="26704140" x="-87.66204950000001" y="41.9078024" >
		</node>
		<node id="26704145" x="-87.6646357" y="41.9104285" >
		</node>
		<node id="26704146" x="-87.664955" y="41.9109344" >
		</node>
		<node id="26704147" x="-87.66605720000001" y="41.912703900000004" >
		</node>
		<node id="26704155" x="-87.6699056" y="41.917659900000004" >
		</node>
		<node id="26704157" x="-87.6705742" y="41.9181503" >
		</node>
		<node id="26704159" x="-87.673174" y="41.9196722" >
		</node>
		<node id="26704163" x="-87.67519100000001" y="41.9208312" >
		</node>
		<node id="26704164" x="-87.67658010000001" y="41.921620100000005" >
		</node>
		<node id="26704166" x="-87.6775094" y="41.922141" >
		</node>
		<node id="26704168" x="-87.6784384" y="41.9226763" >
		</node>
		<node id="26704169" x="-87.6799299" y="41.9231763" >
		</node>
		<node id="26704171" x="-87.68209420000001" y="41.924753900000006" >
		</node>
		<node id="26704172" x="-87.68294180000001" y="41.9252355" >
		</node>
		<node id="26704174" x="-87.6873745" y="41.9277597" >
		</node>
		<node id="26704176" x="-87.6894159" y="41.9289101" >
		</node>
		<node id="26704178" x="-87.6905954" y="41.929581000000006" >
		</node>
		<node id="26704181" x="-87.69460210000001" y="41.931905300000004" >
		</node>
		<node id="26704182" x="-87.69535300000001" y="41.932345500000004" >
		</node>
		<node id="26704183" x="-87.6973677" y="41.933531800000004" >
		</node>
		<node id="26704184" x="-87.69796190000001" y="41.933883800000004" >
		</node>
		<node id="26704186" x="-87.7040013" y="41.9373438" >
		</node>
		<node id="26704188" x="-87.7079803" y="41.9394921" >
		</node>
		<node id="26704195" x="-87.71219950000001" y="41.941298" >
		</node>
		<node id="26704196" x="-87.7129465" y="41.9414837" >
		</node>
		<node id="26704211" x="-87.7155908" y="41.9426982" >
		</node>
		<node id="26704212" x="-87.7159807" y="41.9430445" >
		</node>
		<node id="26704221" x="-87.71984520000001" y="41.9481015" >
		</node>
		<node id="26704226" x="-87.7237913" y="41.9500789" >
		</node>
		<node id="26704227" x="-87.7272944" y="41.9520947" >
		</node>
		<node id="26704228" x="-87.72786760000001" y="41.9524199" >
		</node>
		<node id="26704229" x="-87.7295642" y="41.9533708" >
		</node>
		<node id="26704233" x="-87.7356175" y="41.956777800000005" >
		</node>
		<node id="26704235" x="-87.739079" y="41.958718000000005" >
		</node>
		<node id="26704238" x="-87.7426331" y="41.9609984" >
		</node>
		<node id="26791857" x="-87.763118" y="41.9714656" >
		</node>
		<node id="26791858" x="-87.7640362" y="41.9716996" >
		</node>
		<node id="26791860" x="-87.7654334" y="41.9721883" >
		</node>
		<node id="26791864" x="-87.77490490000001" y="41.977467600000004" >
		</node>
		<node id="26792807" x="-87.7812421" y="41.981056900000006" >
		</node>
		<node id="26792815" x="-87.7927379" y="41.982577600000006" >
		</node>
		<node id="26792817" x="-87.79515950000001" y="41.982555000000005" >
		</node>
		<node id="26792886" x="-87.6601936" y="41.900116000000004" >
		</node>
		<node id="26792889" x="-87.6581434" y="41.8964293" >
		</node>
		<node id="26792901" x="-87.65004780000001" y="41.890597400000004" >
		</node>
		<node id="26792903" x="-87.64864730000001" y="41.889643" >
		</node>
		<node id="26792906" x="-87.6461014" y="41.886419000000004" >
		</node>